/*--------------------------------*- C++ -*----------------------------------*\
| =========                 |                                                 |
| \\      /  F ield         | OpenFOAM: The Open Source CFD Toolbox           |
|  \\    /   O peration     | Version:  2412                                  |
|   \\  /    A nd           | Website:  www.openfoam.com                      |
|    \\/     M anipulation  |                                                 |
\*---------------------------------------------------------------------------*/
FoamFile
{
    version     2.0;
    format      ascii;
    arch        "LSB;label=32;scalar=64";
    class       featureEdgeMesh;
    location    "constant/triSurface";
    object      room.eMesh;
}
// * * * * * * * * * * * * * * * * * * * * * * * * * * * * * * * * * * * * * //


// points:

1180
(
(0.1998433 0.8500047 0.1499224)
(0.4973968 0.8500047 0.1499224)
(0.5438977 0.8038957 0.413)
(0.1508977 0.8038957 0.413)
(0.1973976 1.308836 0)
(0.1973976 0.9588354 0)
(0.1369677 1.5 0.8401363)
(0.1369677 1.308836 0.8401363)
(0.5578267 1.308836 0.8401363)
(0.5578267 1.5 0.8401363)
(0.1369677 1.308836 0.3457138)
(0.1369677 1.5 0.3457138)
(0.5578267 1.5 0.3457138)
(0.5578267 1.308836 0.3457138)
(0.1508977 1.308836 0.1999224)
(0.5438977 0.8038957 0.1999224)
(0.1508977 0.8038957 0.1999224)
(0.5438977 1.308836 0.1999224)
(0.4973968 0.9588354 0)
(0.4973968 1.308836 0)
(1.962002 0.1390018 -0.05)
(1.962002 0.1590015 -0.05)
(1.962002 0.1590015 2.05)
(1.962002 0.1390018 2.05)
(1.385 0.1590015 -0.05)
(1.385 0.1590015 2.05)
(1.365 1.164153e-13 -0.05)
(1.385 1.164153e-13 -0.05)
(1.385 1.164153e-13 2.05)
(1.365 1.164153e-13 2.05)
(1.365 0.1390018 -0.05)
(1.365 0.1390018 2.05)
(1.364971 0.7160034 -0.05)
(1.385 0.7160034 -0.05)
(1.385 0.7160034 2.05)
(1.364971 0.7160034 2.05)
(1.385 1.615 -0.05)
(1.385 1.615 2.05)
(1.364971 1.615 -0.05)
(1.364971 1.615 2.05)
(1.7865 1.615017 1.92982)
(1.7865 1.615017 1.94682)
(1.8135 1.615017 1.94682)
(1.8135 1.615017 1.92982)
(1.697116 1.615013 1.220202)
(1.697116 1.615013 1.199402)
(1.725029 1.615013 1.220202)
(1.725029 1.615013 1.199402)
(1.874996 1.61492 1.220202)
(1.874996 1.61492 1.199402)
(1.902909 1.61492 1.220202)
(1.902909 1.61492 1.199402)
(1.652387 1.546752 1.227302)
(1.652387 1.546752 1.192302)
(1.947 1.546752 1.227302)
(1.947 1.546752 1.192302)
(1.947 1.487717 1.227302)
(1.947 1.487717 1.192302)
(1.652387 1.487717 1.192302)
(1.652387 1.487717 1.227302)
(1.7865 1.524623 2.15)
(1.8135 1.524623 2.15)
(1.7865 1.148623 2.136)
(1.7865 1.148623 2.15)
(1.8135 1.148623 2.136)
(1.8135 1.148623 2.15)
(1.78 1.151137 2.136)
(1.82 1.151137 2.136)
(1.82 1.191137 2.136)
(1.78 1.191137 2.136)
(1.675 1.046142 2.072108)
(1.675 1.046142 2.094108)
(1.675 1.296142 2.072108)
(1.675 1.296142 2.094108)
(1.925 1.296142 2.072108)
(1.925 1.296142 2.094108)
(1.925 1.046142 2.072108)
(1.925 1.046142 2.094108)
(1.248599 1.029289 0.85)
(0.6835994 1.029289 0.85)
(0.6835994 1.5 0.85)
(1.248599 1.5 0.85)
(0.820608 1.162526 0.47)
(0.820608 1.5 0.47)
(1.111591 1.5 0.47)
(1.111591 1.162526 0.47)
(0.2324856 1.615 1.25)
(0.2324856 1.615 2.15)
(1.132486 1.615 2.15)
(1.132486 1.615 1.25)
(0.2324856 1.465 2.15)
(1.132486 1.465 2.15)
(0.2324856 1.465 1.25)
(1.132486 1.465 1.25)
(1.385 1.383266 -0.05)
(2.215 1.383266 -0.05)
(2.215 1.383266 0.95)
(1.385 1.383266 0.95)
(2.215 1.615 -0.05)
(2.215 1.615 0.95)
(1.385 1.615 0.95)
(0 1.5 -0.05)
(1.364971 1.5 -0.05)
(1.364971 1.5 0.95)
(0 1.5 0.95)
(1.364971 1.615 0.95)
(0 1.615 -0.05)
(0 1.615 0.95)
(0.1973976 1.308836 0.3457138)
(0.4973968 1.308836 0.3457138)
(0.1998433 0.8500047 0.1999224)
(0.4973968 0.8500047 0.1999224)
(0.1973976 0.9588354 0.1499224)
(0.5438977 1.308836 0.413)
(0.1508977 1.308836 0.413)
(0.1973976 1.308836 0.1999224)
(0.1973976 1.5 0.3457138)
(0.1508977 1.308836 0.3457138)
(0.4973968 1.5 0.3457138)
(0.4973968 1.308836 0.1999224)
(0.5438977 1.308836 0.3457138)
(0.4973968 0.9588354 0.1499224)
(1.385 0.1390018 -0.05)
(1.385 0.1390018 2.05)
(1.7865 1.524623 1.94682)
(1.8135 1.524623 1.94682)
(1.7865 1.524623 1.92982)
(1.8135 1.524623 1.92982)
(1.697116 1.546752 1.220202)
(1.697116 1.546752 1.199402)
(1.725029 1.546752 1.220202)
(1.725029 1.546752 1.199402)
(1.874996 1.546752 1.220202)
(1.874996 1.546752 1.199402)
(1.902909 1.546752 1.199402)
(1.902909 1.546752 1.220202)
(1.7865 1.524623 1.227302)
(1.8135 1.524623 1.227302)
(1.7865 1.513521 1.227302)
(1.8135 1.513521 1.227302)
(1.78 1.151137 2.094108)
(1.7865 1.151137 2.136)
(1.82 1.151137 2.094108)
(1.8135 1.151137 2.136)
(1.82 1.191137 2.094108)
(1.8135 1.191137 2.136)
(1.78 1.191137 2.094108)
(1.7865 1.191137 2.136)
(1.8135 1.513521 2.136)
(1.7865 1.513521 2.136)
(0.820608 1.162526 0.6850001)
(1.111591 1.162526 0.6850001)
(0.820608 1.5 0.6850001)
(1.111591 1.5 0.6850001)
(0.1998433 0.8500047 0.1749224)
(0.1998433 0.8750048 0.1499224)
(0.3486201 0.8500047 0.1499224)
(0.1986205 0.9169201 0.1499224)
(0.4148991 1.179351 0.413)
(0.4129415 1.180573 0.413)
(0.3496818 1.197628 0.413)
(0.3473977 1.197486 0.413)
(0.354251 1.197749 0.413)
(0.3519665 1.197715 0.413)
(0.3588142 1.197657 0.413)
(0.3565339 1.197729 0.413)
(0.3633661 1.197357 0.413)
(0.3610918 1.197533 0.413)
(0.3656362 1.197131 0.413)
(0.3701608 1.19653 0.413)
(0.3679014 1.196855 0.413)
(0.3746593 1.195732 0.413)
(0.3724137 1.196155 0.413)
(0.3791254 1.194745 0.413)
(0.3768968 1.195262 0.413)
(0.3835528 1.193572 0.413)
(0.3813443 1.194181 0.413)
(0.38575 1.192917 0.413)
(0.3901078 1.191475 0.413)
(0.3879352 1.192218 0.413)
(0.394413 1.189859 0.413)
(0.3922676 1.190689 0.413)
(0.3986573 1.188075 0.413)
(0.3965431 1.188988 0.413)
(0.4028344 1.186127 0.413)
(0.4007546 1.187121 0.413)
(0.4048958 1.185093 0.413)
(0.4089602 1.182909 0.413)
(0.406938 1.18402 0.413)
(0.4109616 1.18176 0.413)
(0.4168335 1.178092 0.413)
(0.4206298 1.175469 0.413)
(0.418744 1.176798 0.413)
(0.4224901 1.174106 0.413)
(0.4261311 1.17128 0.413)
(0.4243242 1.17271 0.413)
(0.4296605 1.168326 0.413)
(0.4279101 1.169819 0.413)
(0.4330721 1.165247 0.413)
(0.4313815 1.166801 0.413)
(0.4363596 1.162049 0.413)
(0.4347318 1.163662 0.413)
(0.4379548 1.160407 0.413)
(0.4410442 1.157039 0.413)
(0.4395166 1.158736 0.413)
(0.4439937 1.153565 0.413)
(0.4425368 1.155315 0.413)
(0.4454139 1.151789 0.413)
(0.461099 1.124392 0.413)
(0.4602259 1.12658 0.413)
(0.4674711 1.100191 0.413)
(0.4670946 1.102462 0.413)
(0.4467968 1.149988 0.413)
(0.4494473 1.146315 0.413)
(0.4481416 1.148164 0.413)
(0.451939 1.14255 0.413)
(0.4507134 1.144444 0.413)
(0.4542653 1.138697 0.413)
(0.4531232 1.140634 0.413)
(0.4553645 1.13674 0.413)
(0.4574311 1.132766 0.413)
(0.4564201 1.134763 0.413)
(0.4593311 1.128684 0.413)
(0.4583969 1.130751 0.413)
(0.4626244 1.120177 0.413)
(0.4618717 1.122326 0.413)
(0.4633322 1.118013 0.413)
(0.4646162 1.113637 0.413)
(0.4639959 1.115832 0.413)
(0.4657299 1.109206 0.413)
(0.4651939 1.111428 0.413)
(0.4666795 1.104722 0.413)
(0.4662248 1.10697 0.413)
(0.4678009 1.097971 0.413)
(0.4683534 1.093524 0.413)
(0.4680942 1.095752 0.413)
(0.4687718 1.089044 0.413)
(0.468579 1.091288 0.413)
(0.4690619 1.084535 0.413)
(0.4689326 1.086793 0.413)
(0.4692292 1.08 0.413)
(0.4691606 1.08227 0.413)
(0.4692685 1.077725 0.413)
(0.4692621 1.073162 0.413)
(0.4692793 1.075446 0.413)
(0.4691469 1.068585 0.413)
(0.4692177 1.070875 0.413)
(0.4689284 1.063998 0.413)
(0.4690502 1.066293 0.413)
(0.4686123 1.059406 0.413)
(0.4687822 1.061703 0.413)
(0.4684195 1.057109 0.413)
(0.4679675 1.052517 0.413)
(0.4682043 1.054813 0.413)
(0.4674319 1.04793 0.413)
(0.4677098 1.050223 0.413)
(0.4671345 1.04564 0.413)
(0.4627657 1.020736 0.413)
(0.4632396 1.022987 0.413)
(0.4571546 0.9985774 0.413)
(0.4577983 1.000785 0.413)
(0.4668184 1.043353 0.413)
(0.4661323 1.03879 0.413)
(0.466484 1.041069 0.413)
(0.4653795 1.034245 0.413)
(0.4657639 1.036515 0.413)
(0.4645654 1.029722 0.413)
(0.4649797 1.03198 0.413)
(0.4641371 1.02747 0.413)
(0.4636952 1.025225 0.413)
(0.4622764 1.018489 0.413)
(0.461253 1.014018 0.413)
(0.4617723 1.01625 0.413)
(0.4601675 1.009578 0.413)
(0.4607181 1.011794 0.413)
(0.4596008 1.00737 0.413)
(0.4584178 1.002978 0.413)
(0.4590176 1.00517 0.413)
(0.4558125 0.9941881 0.413)
(0.4564928 0.9963785 0.413)
(0.4543954 0.9898336 0.413)
(0.4551135 0.9920065 0.413)
(0.4536578 0.9876696 0.413)
(0.4521232 0.9833685 0.413)
(0.4529005 0.9855145 0.413)
(0.4505072 0.9791036 0.413)
(0.4513256 0.9812315 0.413)
(0.4488073 0.9748757 0.413)
(0.4496679 0.976985 0.413)
(0.4470208 0.9706854 0.413)
(0.447925 0.9727759 0.413)
(0.4460944 0.9686046 0.413)
(0.4355363 0.9483384 0.413)
(0.4367027 0.9503195 0.413)
(0.4441735 0.9644719 0.413)
(0.4451454 0.9665334 0.413)
(0.4421597 0.9603782 0.413)
(0.4431784 0.9624201 0.413)
(0.4400507 0.9563243 0.413)
(0.4411173 0.9583462 0.413)
(0.4378437 0.9523109 0.413)
(0.4389596 0.9543126 0.413)
(0.4343475 0.9463732 0.413)
(0.4319113 0.9425054 0.413)
(0.4331422 0.9444335 0.413)
(0.4306563 0.9405925 0.413)
(0.4240114 0.9312806 0.413)
(0.4253913 0.9331075 0.413)
(0.4120464 0.9174826 0.413)
(0.4136366 0.919121 0.413)
(0.4293781 0.938697 0.413)
(0.4267457 0.9349533 0.413)
(0.4280746 0.9368169 0.413)
(0.4211753 0.9276882 0.413)
(0.4226061 0.9294738 0.413)
(0.419719 0.9259253 0.413)
(0.4167298 0.9224717 0.413)
(0.4182372 0.924186 0.413)
(0.4087885 0.9142969 0.413)
(0.4104304 0.9158742 0.413)
(0.4151968 0.9207836 0.413)
(0.4071207 0.912752 0.413)
(0.4037074 0.9097643 0.413)
(0.405427 0.9112408 0.413)
(0.4001903 0.9069205 0.413)
(0.4019618 0.9083238 0.413)
(0.3965692 0.9042306 0.413)
(0.3983928 0.9055557 0.413)
(0.3947197 0.9029463 0.413)
(0.3909423 0.9005052 0.413)
(0.3928441 0.9017041 0.413)
(0.3870606 0.8982421 0.413)
(0.3890145 0.8993508 0.413)
(0.3830743 0.8961667 0.413)
(0.3850805 0.8971803 0.413)
(0.3789832 0.8942887 0.413)
(0.3810418 0.8952025 0.413)
(0.3768983 0.8934268 0.413)
(0.3747872 0.8926179 0.413)
(0.3726498 0.8918632 0.413)
(0.368296 0.8905213 0.413)
(0.3704861 0.8911639 0.413)
(0.3638369 0.8894107 0.413)
(0.3660796 0.8899365 0.413)
(0.3592723 0.8885413 0.413)
(0.3615678 0.8889453 0.413)
(0.3569503 0.8882 0.413)
(0.352227 0.8877105 0.413)
(0.3546019 0.8879227 0.413)
(0.3473977 0.8874863 0.413)
(0.3499456 0.8875703 0.413)
(0.3404453 0.887897 0.413)
(0.3428097 0.8876927 0.413)
(0.3358992 0.8884815 0.413)
(0.3382148 0.8881519 0.413)
(0.3101136 0.8969738 0.413)
(0.312135 0.8959653 0.413)
(0.3450918 0.8875591 0.413)
(0.3313464 0.8893265 0.413)
(0.3336097 0.8888735 0.413)
(0.3291093 0.8898395 0.413)
(0.3247134 0.8910404 0.413)
(0.3268983 0.8904112 0.413)
(0.3204218 0.8924668 0.413)
(0.3225546 0.8917261 0.413)
(0.3162344 0.8941091 0.413)
(0.3183151 0.8932616 0.413)
(0.3141798 0.8950081 0.413)
(0.3061501 0.8991365 0.413)
(0.3081187 0.8980314 0.413)
(0.3022922 0.9014848 0.413)
(0.304208 0.900288 0.413)
(0.2985395 0.9040087 0.413)
(0.3004027 0.9027254 0.413)
(0.2948921 0.9066986 0.413)
(0.2967027 0.9053336 0.413)
(0.2931078 0.9081028 0.413)
(0.2896178 0.9110231 0.413)
(0.2913497 0.9095446 0.413)
(0.2862325 0.9140846 0.413)
(0.2879121 0.9125368 0.413)
(0.2829518 0.9172776 0.413)
(0.2845791 0.9156653 0.413)
(0.2797755 0.9205922 0.413)
(0.2813506 0.9189203 0.413)
(0.2782264 0.9222921 0.413)
(0.2681103 0.9348696 0.413)
(0.2694777 0.9330087 0.413)
(0.2752063 0.9257706 0.413)
(0.2767033 0.9240186 0.413)
(0.2722901 0.9293461 0.413)
(0.2737352 0.9275469 0.413)
(0.2708709 0.9311672 0.413)
(0.2667688 0.9367486 0.413)
(0.2654532 0.9386445 0.413)
(0.2628994 0.9424819 0.413)
(0.2641634 0.940556 0.413)
(0.2604487 0.9463719 0.413)
(0.2616611 0.9444209 0.413)
(0.2558477 0.954291 0.413)
(0.256965 0.9522873 0.413)
(0.2468791 0.9727554 0.413)
(0.2478087 0.9706077 0.413)
(0.2581032 0.9503013 0.413)
(0.259263 0.9483318 0.413)
(0.2536871 0.9583289 0.413)
(0.2547551 0.9563049 0.413)
(0.2516235 0.962407 0.413)
(0.2526433 0.960363 0.413)
(0.2506271 0.9644609 0.413)
(0.2487039 0.9685981 0.413)
(0.2496541 0.9665246 0.413)
(0.2443146 0.979036 0.413)
(0.2451483 0.9769333 0.413)
(0.246003 0.9748397 0.413)
(0.2435015 0.9811478 0.413)
(0.2419363 0.9853985 0.413)
(0.2427089 0.9832687 0.413)
(0.2404501 0.9896846 0.413)
(0.2411835 0.9875371 0.413)
(0.2390405 0.9940057 0.413)
(0.2397359 0.9918408 0.413)
(0.2383636 0.9961791 0.413)
(0.2370642 1.000551 0.413)
(0.237705 0.9983611 0.413)
(0.2358352 1.004957 0.413)
(0.2364411 1.00275 0.413)
(0.2346741 1.009395 0.413)
(0.2352463 1.007172 0.413)
(0.2335785 1.013866 0.413)
(0.2341183 1.011627 0.413)
(0.2330544 1.016113 0.413)
(0.2325458 1.018368 0.413)
(0.2306594 1.027465 0.413)
(0.2311094 1.025179 0.413)
(0.2294205 1.034218 0.413)
(0.2298186 1.031964 0.413)
(0.2320523 1.020631 0.413)
(0.2315736 1.022901 0.413)
(0.2302312 1.029716 0.413)
(0.2290393 1.036468 0.413)
(0.2283246 1.040981 0.413)
(0.2286738 1.038722 0.413)
(0.2276783 1.04551 0.413)
(0.2279926 1.043244 0.413)
(0.2273824 1.04778 0.413)
(0.2258789 1.063796 0.413)
(0.2260301 1.061458 0.413)
(0.2271056 1.050051 0.413)
(0.2266121 1.0546 0.413)
(0.2268486 1.052325 0.413)
(0.2262032 1.059152 0.413)
(0.2263968 1.056876 0.413)
(0.2257529 1.066132 0.413)
(0.2255796 1.070799 0.413)
(0.2256529 1.068467 0.413)
(0.2255161 1.075454 0.413)
(0.2255338 1.073129 0.413)
(0.2255684 1.080092 0.413)
(0.2255274 1.077776 0.413)
(0.2257424 1.084709 0.413)
(0.2256398 1.082404 0.413)
(0.2258768 1.087008 0.413)
(0.2262443 1.091584 0.413)
(0.2260439 1.0893 0.413)
(0.2267483 1.096128 0.413)
(0.2264789 1.093861 0.413)
(0.2273947 1.100635 0.413)
(0.2270534 1.098386 0.413)
(0.2281893 1.105099 0.413)
(0.2277731 1.102872 0.413)
(0.2286441 1.107315 0.413)
(0.2296722 1.111708 0.413)
(0.2291381 1.109518 0.413)
(0.2308634 1.116049 0.413)
(0.230247 1.113886 0.413)
(0.2322235 1.120332 0.413)
(0.2315219 1.118198 0.413)
(0.2337585 1.124553 0.413)
(0.2329688 1.122451 0.413)
(0.2345935 1.126639 0.413)
(0.2395096 1.136883 0.413)
(0.2384285 1.134865 0.413)
(0.2364064 1.130768 0.413)
(0.2354743 1.128707 0.413)
(0.2373939 1.132826 0.413)
(0.2406225 1.138857 0.413)
(0.2429722 1.142733 0.413)
(0.2417761 1.140806 0.413)
(0.2442102 1.144637 0.413)
(0.2468084 1.148377 0.413)
(0.2454892 1.146519 0.413)
(0.249564 1.152021 0.413)
(0.2481669 1.150212 0.413)
(0.2603562 1.163946 0.413)
(0.2587116 1.162327 0.413)
(0.2821023 1.180725 0.413)
(0.2801505 1.179512 0.413)
(0.2524707 1.155564 0.413)
(0.2509989 1.153806 0.413)
(0.2555221 1.159001 0.413)
(0.2539787 1.157296 0.413)
(0.2571 1.160678 0.413)
(0.262017 1.165521 0.413)
(0.2637054 1.167064 0.413)
(0.267171 1.170057 0.413)
(0.2654237 1.168576 0.413)
(0.2707497 1.172925 0.413)
(0.2689466 1.171507 0.413)
(0.2744353 1.175662 0.413)
(0.2725796 1.17431 0.413)
(0.2782216 1.178264 0.413)
(0.2763163 1.17698 0.413)
(0.2840761 1.181901 0.413)
(0.2880867 1.184143 0.413)
(0.2860711 1.183041 0.413)
(0.292176 1.186232 0.413)
(0.2901219 1.185207 0.413)
(0.296338 1.188163 0.413)
(0.2942483 1.187217 0.413)
(0.2984443 1.189068 0.413)
(0.3027034 1.190754 0.413)
(0.3005663 1.189932 0.413)
(0.3070194 1.192271 0.413)
(0.3048547 1.191534 0.413)
(0.3113862 1.193613 0.413)
(0.3091969 1.192964 0.413)
(0.3157975 1.194776 0.413)
(0.3135867 1.194217 0.413)
(0.3180179 1.195288 0.413)
(0.3224842 1.196173 0.413)
(0.320247 1.195754 0.413)
(0.3269794 1.196866 0.413)
(0.3247285 1.196544 0.413)
(0.3314972 1.197363 0.413)
(0.3292358 1.19714 0.413)
(0.3360314 1.197659 0.413)
(0.3337626 1.197537 0.413)
(0.3383027 1.19773 0.413)
(0.3428498 1.197715 0.413)
(0.3405758 1.197749 0.413)
(0.345124 1.197628 0.413)
(0.5438977 1.258341 0.413)
(0.5438977 1.207847 0.413)
(0.5438977 1.157354 0.413)
(0.5438977 1.10686 0.413)
(0.5438977 1.056365 0.413)
(0.1508977 1.258341 0.413)
(0.1508977 1.207847 0.413)
(0.1508977 1.157354 0.413)
(0.1508977 1.10686 0.413)
(0.1508977 1.056365 0.413)
(0.5438977 0.9553776 0.413)
(0.5438977 1.005872 0.413)
(0.5438977 0.9048836 0.413)
(0.4456477 0.8038957 0.413)
(0.4947727 0.8038957 0.413)
(0.5438977 0.8543897 0.413)
(0.3965227 0.8038957 0.413)
(0.3473977 0.8038957 0.413)
(0.1508977 1.005872 0.413)
(0.1508977 0.9553776 0.413)
(0.1508977 0.9048836 0.413)
(0.2982727 0.8038957 0.413)
(0.2000227 0.8038957 0.413)
(0.2491477 0.8038957 0.413)
(0.1508977 0.8543897 0.413)
(0.1973976 1.404418 0.1728569)
(0.1973976 1.133836 0)
(0.3473972 1.308836 0.8401363)
(0.3473972 1.5 0.8401363)
(0.1369677 1.404418 0.3457138)
(0.5578267 1.5 0.5929251)
(0.5578267 1.404418 0.3457138)
(0.5578267 1.308836 0.5929251)
(0.1369677 1.5 0.5929251)
(0.1369677 1.308836 0.5929251)
(0.1508977 1.308836 0.2728181)
(0.3473977 0.8038957 0.1999224)
(0.5438977 1.056365 0.1999224)
(0.1508977 1.056365 0.1999224)
(0.5438977 1.308836 0.2728181)
(0.3473972 0.9588354 0)
(0.4973968 1.133836 0)
(0.3473972 1.308836 0)
(0.4973968 1.404418 0.1728569)
(1.8 1.615017 1.94682)
(1.8 1.615017 1.92982)
(1.7865 1.56982 1.94682)
(1.8135 1.56982 1.94682)
(1.7865 1.56982 1.92982)
(1.8135 1.56982 1.92982)
(1.697116 1.580883 1.220202)
(1.697116 1.580883 1.199402)
(1.711073 1.615013 1.220202)
(1.711073 1.615013 1.199402)
(1.725029 1.580883 1.199402)
(1.725029 1.580883 1.220202)
(1.874996 1.580836 1.220202)
(1.874996 1.580836 1.199402)
(1.888952 1.61492 1.220202)
(1.888952 1.61492 1.199402)
(1.902909 1.580836 1.220202)
(1.902909 1.580836 1.199402)
(1.668754 1.546752 1.227302)
(1.685122 1.546752 1.227302)
(1.652387 1.546752 1.215636)
(1.701489 1.546752 1.227302)
(1.717857 1.546752 1.227302)
(1.734224 1.546752 1.227302)
(1.750591 1.546752 1.227302)
(1.766959 1.546752 1.227302)
(1.783326 1.546752 1.227302)
(1.799693 1.546752 1.227302)
(1.652387 1.546752 1.203969)
(1.701489 1.546752 1.192302)
(1.685122 1.546752 1.192302)
(1.668754 1.546752 1.192302)
(1.717857 1.546752 1.192302)
(1.734224 1.546752 1.192302)
(1.750591 1.546752 1.192302)
(1.766959 1.546752 1.192302)
(1.783326 1.546752 1.192302)
(1.799693 1.546752 1.192302)
(1.816061 1.546752 1.227302)
(1.832428 1.546752 1.227302)
(1.848796 1.546752 1.227302)
(1.865163 1.546752 1.227302)
(1.881531 1.546752 1.227302)
(1.897898 1.546752 1.227302)
(1.914265 1.546752 1.227302)
(1.930633 1.546752 1.227302)
(1.947 1.546752 1.215636)
(1.832428 1.546752 1.192302)
(1.816061 1.546752 1.192302)
(1.848796 1.546752 1.192302)
(1.865163 1.546752 1.192302)
(1.881531 1.546752 1.192302)
(1.947 1.546752 1.203969)
(1.914265 1.546752 1.192302)
(1.897898 1.546752 1.192302)
(1.930633 1.546752 1.192302)
(1.947 1.517234 1.227302)
(1.947 1.517234 1.192302)
(1.917539 1.487717 1.227302)
(1.888077 1.487717 1.227302)
(1.848796 1.487717 1.192302)
(1.858616 1.487717 1.227302)
(1.829155 1.487717 1.227302)
(1.799693 1.487717 1.227302)
(1.770232 1.487717 1.227302)
(1.740771 1.487717 1.227302)
(1.71131 1.487717 1.227302)
(1.750591 1.487717 1.192302)
(1.681848 1.487717 1.227302)
(1.652387 1.517234 1.192302)
(1.652387 1.517234 1.227302)
(1.7865 1.524623 2.136)
(1.8135 1.524623 2.136)
(1.8135 1.524623 2.07294)
(1.7865 1.524623 2.07294)
(1.8135 1.524623 2.00988)
(1.7865 1.524623 2.00988)
(1.7955 1.148623 2.136)
(1.8 1.148623 2.15)
(1.8045 1.148623 2.136)
(1.78 1.151137 2.115054)
(1.82 1.151137 2.115054)
(1.82 1.177804 2.136)
(1.82 1.16447 2.136)
(1.82 1.191137 2.115054)
(1.78 1.191137 2.115054)
(1.78 1.16447 2.136)
(1.78 1.177804 2.136)
(1.675 1.071141 2.094108)
(1.675 1.096142 2.094108)
(1.675 1.129475 2.072108)
(1.675 1.121142 2.094108)
(1.675 1.146142 2.094108)
(1.675 1.171142 2.094108)
(1.675 1.196141 2.094108)
(1.675 1.221142 2.094108)
(1.675 1.246142 2.094108)
(1.675 1.212808 2.072108)
(1.675 1.271142 2.094108)
(1.7 1.296142 2.094108)
(1.725 1.296142 2.094108)
(1.758333 1.296142 2.072108)
(1.75 1.296142 2.094108)
(1.775 1.296142 2.094108)
(1.8 1.296142 2.094108)
(1.825 1.296142 2.094108)
(1.85 1.296142 2.094108)
(1.875 1.296142 2.094108)
(1.841667 1.296142 2.072108)
(1.9 1.296142 2.094108)
(1.925 1.271142 2.094108)
(1.925 1.246142 2.094108)
(1.925 1.212808 2.072108)
(1.925 1.221142 2.094108)
(1.925 1.196141 2.094108)
(1.925 1.171142 2.094108)
(1.925 1.146142 2.094108)
(1.925 1.121142 2.094108)
(1.925 1.096142 2.094108)
(1.925 1.129475 2.072108)
(1.925 1.071141 2.094108)
(1.9 1.046142 2.094108)
(1.875 1.046142 2.094108)
(1.841667 1.046142 2.072108)
(1.85 1.046142 2.094108)
(1.825 1.046142 2.094108)
(1.8 1.046142 2.094108)
(1.775 1.046142 2.094108)
(1.75 1.046142 2.094108)
(1.725 1.046142 2.094108)
(1.758333 1.046142 2.072108)
(1.7 1.046142 2.094108)
(1.7865 1.513521 1.340889)
(1.8135 1.513521 1.340889)
(1.7865 1.513521 1.568064)
(1.7865 1.513521 1.454477)
(1.8135 1.513521 1.454477)
(1.8135 1.513521 1.568064)
(1.7865 1.513521 1.681651)
(1.8135 1.513521 1.681651)
(1.7865 1.513521 1.908826)
(1.7865 1.513521 1.795238)
(1.8135 1.513521 1.795238)
(1.8135 1.513521 1.908826)
(1.8135 1.513521 2.022413)
(1.7865 1.513521 2.022413)
(1.8135 1.430623 2.15)
(1.7865 1.430623 2.15)
(1.8135 1.336623 2.15)
(1.7865 1.336623 2.15)
(1.8135 1.242623 2.15)
(1.7865 1.242623 2.15)
(1.7865 1.40606 2.136)
(1.8135 1.40606 2.136)
(1.8135 1.298598 2.136)
(1.7865 1.298598 2.136)
(1.8135 1.524623 1.829461)
(1.7865 1.524623 1.829461)
(1.8135 1.524623 1.729101)
(1.8135 1.524623 1.628741)
(1.7865 1.524623 1.628741)
(1.7865 1.524623 1.729101)
(1.8135 1.524623 1.528381)
(1.7865 1.524623 1.528381)
(1.8135 1.524623 1.428022)
(1.7865 1.524623 1.428022)
(1.8135 1.524623 1.327662)
(1.7865 1.524623 1.327662)
(0.7521037 1.5 0.7675)
(1.180095 1.5 0.7675)
(0.9660994 1.5 0.85)
(0.820608 1.331263 0.47)
(1.111591 1.331263 0.47)
(0.9660994 1.162526 0.47)
(0.9660994 1.5 0.47)
(0.1998433 0.8750048 0.1999224)
(0.3486201 0.8500047 0.1999224)
(0.1986205 0.9169201 0.1999224)
(0.1973976 0.9588354 0.1999224)
(0.4947727 1.308836 0.413)
(0.4456477 1.308836 0.413)
(0.3965227 1.308836 0.413)
(0.3473977 1.308836 0.413)
(0.2982727 1.308836 0.413)
(0.2491477 1.308836 0.413)
(0.2000227 1.308836 0.413)
(0.1973976 1.308836 0.2728181)
(0.1973976 1.404418 0.3457138)
(0.4973968 1.07942 0.1999224)
(0.4973968 1.404418 0.3457138)
(0.4973968 1.308836 0.2728181)
(0.3473972 0.9588354 0.1499224)
(0.3588962 0.8884815 0.1999224)
(0.3565806 0.8881519 0.1999224)
(0.3543501 0.887897 0.1999224)
(0.3519857 0.8876927 0.1999224)
(0.3846818 0.8969738 0.1999224)
(0.3826604 0.8959653 0.1999224)
(0.3497036 0.8875591 0.1999224)
(0.3473977 0.8874863 0.1999224)
(0.3634489 0.8893265 0.1999224)
(0.3611857 0.8888735 0.1999224)
(0.3656861 0.8898395 0.1999224)
(0.370082 0.8910404 0.1999224)
(0.3678971 0.8904112 0.1999224)
(0.3743736 0.8924668 0.1999224)
(0.3722408 0.8917261 0.1999224)
(0.3764803 0.8932616 0.1999224)
(0.3806156 0.8950081 0.1999224)
(0.3785609 0.8941091 0.1999224)
(0.3866767 0.8980314 0.1999224)
(0.3905874 0.900288 0.1999224)
(0.3886453 0.8991365 0.1999224)
(0.3943927 0.9027254 0.1999224)
(0.3925032 0.9014848 0.1999224)
(0.3980927 0.9053336 0.1999224)
(0.3962559 0.9040087 0.1999224)
(0.3999033 0.9066986 0.1999224)
(0.4034457 0.9095446 0.1999224)
(0.4016876 0.9081028 0.1999224)
(0.4068833 0.9125368 0.1999224)
(0.4051776 0.9110231 0.1999224)
(0.4085629 0.9140846 0.1999224)
(0.4118436 0.9172776 0.1999224)
(0.4102163 0.9156653 0.1999224)
(0.4150199 0.9205922 0.1999224)
(0.4134448 0.9189203 0.1999224)
(0.416569 0.9222921 0.1999224)
(0.4180921 0.9240186 0.1999224)
(0.4266851 0.9348696 0.1999224)
(0.4253177 0.9330087 0.1999224)
(0.4195891 0.9257706 0.1999224)
(0.4225053 0.9293461 0.1999224)
(0.4210602 0.9275469 0.1999224)
(0.4239244 0.9311672 0.1999224)
(0.4293422 0.9386445 0.1999224)
(0.4280266 0.9367486 0.1999224)
(0.430632 0.940556 0.1999224)
(0.4331343 0.9444209 0.1999224)
(0.431896 0.9424819 0.1999224)
(0.4355324 0.9483318 0.1999224)
(0.4343467 0.9463719 0.1999224)
(0.4389477 0.954291 0.1999224)
(0.4378304 0.9522873 0.1999224)
(0.4479163 0.9727554 0.1999224)
(0.4469867 0.9706077 0.1999224)
(0.4366922 0.9503013 0.1999224)
(0.4411082 0.9583289 0.1999224)
(0.4400402 0.9563049 0.1999224)
(0.4431719 0.962407 0.1999224)
(0.442152 0.960363 0.1999224)
(0.4441682 0.9644609 0.1999224)
(0.4460914 0.9685981 0.1999224)
(0.4451413 0.9665246 0.1999224)
(0.4520865 0.9832687 0.1999224)
(0.4512939 0.9811478 0.1999224)
(0.4487924 0.9748397 0.1999224)
(0.4504808 0.979036 0.1999224)
(0.4496471 0.9769333 0.1999224)
(0.4528591 0.9853985 0.1999224)
(0.4543453 0.9896846 0.1999224)
(0.4536119 0.9875371 0.1999224)
(0.4557549 0.9940057 0.1999224)
(0.4550595 0.9918408 0.1999224)
(0.4570904 0.9983611 0.1999224)
(0.4564317 0.9961791 0.1999224)
(0.4577312 1.000551 0.1999224)
(0.4589602 1.004957 0.1999224)
(0.4583543 1.00275 0.1999224)
(0.4601212 1.009395 0.1999224)
(0.459549 1.007172 0.1999224)
(0.4606771 1.011627 0.1999224)
(0.461741 1.016113 0.1999224)
(0.4612169 1.013866 0.1999224)
(0.4627431 1.020631 0.1999224)
(0.4622496 1.018368 0.1999224)
(0.4632218 1.022901 0.1999224)
(0.463686 1.025179 0.1999224)
(0.464136 1.027465 0.1999224)
(0.4653749 1.034218 0.1999224)
(0.4649768 1.031964 0.1999224)
(0.467413 1.04778 0.1999224)
(0.4671171 1.04551 0.1999224)
(0.4645642 1.029716 0.1999224)
(0.4661216 1.038722 0.1999224)
(0.4657561 1.036468 0.1999224)
(0.4668028 1.043244 0.1999224)
(0.4664707 1.040981 0.1999224)
(0.4676898 1.050051 0.1999224)
(0.4681832 1.0546 0.1999224)
(0.4679467 1.052325 0.1999224)
(0.4683986 1.056876 0.1999224)
(0.4689165 1.063796 0.1999224)
(0.4687652 1.061458 0.1999224)
(0.4552858 1.136883 0.1999224)
(0.4563668 1.134865 0.1999224)
(0.4685921 1.059152 0.1999224)
(0.4691425 1.068467 0.1999224)
(0.4690425 1.066132 0.1999224)
(0.4692616 1.073129 0.1999224)
(0.4692158 1.070799 0.1999224)
(0.4692793 1.075454 0.1999224)
(0.469227 1.080092 0.1999224)
(0.469268 1.077776 0.1999224)
(0.469053 1.084709 0.1999224)
(0.4691556 1.082404 0.1999224)
(0.4689186 1.087008 0.1999224)
(0.4687515 1.0893 0.1999224)
(0.4683165 1.093861 0.1999224)
(0.468551 1.091584 0.1999224)
(0.4680471 1.096128 0.1999224)
(0.467742 1.098386 0.1999224)
(0.4674007 1.100635 0.1999224)
(0.4666061 1.105099 0.1999224)
(0.4670223 1.102872 0.1999224)
(0.4656572 1.109518 0.1999224)
(0.4661513 1.107315 0.1999224)
(0.4645483 1.113886 0.1999224)
(0.4651232 1.111708 0.1999224)
(0.463932 1.116049 0.1999224)
(0.4625719 1.120332 0.1999224)
(0.4632734 1.118198 0.1999224)
(0.4610369 1.124553 0.1999224)
(0.4618266 1.122451 0.1999224)
(0.4602019 1.126639 0.1999224)
(0.4583889 1.130768 0.1999224)
(0.4593211 1.128707 0.1999224)
(0.4574015 1.132826 0.1999224)
(0.4541729 1.138857 0.1999224)
(0.4530194 1.140806 0.1999224)
(0.4505852 1.144637 0.1999224)
(0.4518231 1.142733 0.1999224)
(0.4493062 1.146519 0.1999224)
(0.4466285 1.150212 0.1999224)
(0.447987 1.148377 0.1999224)
(0.4437965 1.153806 0.1999224)
(0.4452314 1.152021 0.1999224)
(0.4423246 1.155564 0.1999224)
(0.4392733 1.159001 0.1999224)
(0.4408166 1.157296 0.1999224)
(0.4360838 1.162327 0.1999224)
(0.4376954 1.160678 0.1999224)
(0.4344392 1.163946 0.1999224)
(0.4126931 1.180725 0.1999224)
(0.4146449 1.179512 0.1999224)
(0.43109 1.167064 0.1999224)
(0.4327784 1.165521 0.1999224)
(0.4276244 1.170057 0.1999224)
(0.4293717 1.168576 0.1999224)
(0.4240457 1.172925 0.1999224)
(0.4258488 1.171507 0.1999224)
(0.4222158 1.17431 0.1999224)
(0.4184791 1.17698 0.1999224)
(0.4203601 1.175662 0.1999224)
(0.3767775 1.195288 0.1999224)
(0.3789979 1.194776 0.1999224)
(0.4165738 1.178264 0.1999224)
(0.4107193 1.181901 0.1999224)
(0.4067087 1.184143 0.1999224)
(0.4087242 1.183041 0.1999224)
(0.4026193 1.186232 0.1999224)
(0.4046735 1.185207 0.1999224)
(0.4005471 1.187217 0.1999224)
(0.3963511 1.189068 0.1999224)
(0.3984574 1.188163 0.1999224)
(0.392092 1.190754 0.1999224)
(0.3942291 1.189932 0.1999224)
(0.3899407 1.191534 0.1999224)
(0.3855985 1.192964 0.1999224)
(0.387776 1.192271 0.1999224)
(0.3812087 1.194217 0.1999224)
(0.3834092 1.193613 0.1999224)
(0.3745483 1.195754 0.1999224)
(0.3700669 1.196544 0.1999224)
(0.3723112 1.196173 0.1999224)
(0.367816 1.196866 0.1999224)
(0.3632982 1.197363 0.1999224)
(0.3655595 1.19714 0.1999224)
(0.358764 1.197659 0.1999224)
(0.3610328 1.197537 0.1999224)
(0.3564927 1.19773 0.1999224)
(0.3519456 1.197715 0.1999224)
(0.3542196 1.197749 0.1999224)
(0.3473977 1.197486 0.1999224)
(0.3496713 1.197628 0.1999224)
(0.3451136 1.197628 0.1999224)
(0.3405444 1.197749 0.1999224)
(0.3428289 1.197715 0.1999224)
(0.3359812 1.197657 0.1999224)
(0.3382614 1.197729 0.1999224)
(0.3314293 1.197357 0.1999224)
(0.3337036 1.197533 0.1999224)
(0.3291592 1.197131 0.1999224)
(0.3223817 1.196155 0.1999224)
(0.3246346 1.19653 0.1999224)
(0.326894 1.196855 0.1999224)
(0.3201361 1.195732 0.1999224)
(0.31567 1.194745 0.1999224)
(0.3178986 1.195262 0.1999224)
(0.3112426 1.193572 0.1999224)
(0.313451 1.194181 0.1999224)
(0.3068602 1.192218 0.1999224)
(0.3090454 1.192917 0.1999224)
(0.3046876 1.191475 0.1999224)
(0.3003824 1.189859 0.1999224)
(0.3025278 1.190689 0.1999224)
(0.2961381 1.188075 0.1999224)
(0.2982523 1.188988 0.1999224)
(0.2940408 1.187121 0.1999224)
(0.2898996 1.185093 0.1999224)
(0.291961 1.186127 0.1999224)
(0.2858352 1.182909 0.1999224)
(0.2878574 1.18402 0.1999224)
(0.2838338 1.18176 0.1999224)
(0.2798963 1.179351 0.1999224)
(0.2818539 1.180573 0.1999224)
(0.2760513 1.176798 0.1999224)
(0.2779619 1.178092 0.1999224)
(0.2741655 1.175469 0.1999224)
(0.2704712 1.17271 0.1999224)
(0.2723052 1.174106 0.1999224)
(0.2668853 1.169819 0.1999224)
(0.2686643 1.17128 0.1999224)
(0.2651348 1.168326 0.1999224)
(0.2617232 1.165247 0.1999224)
(0.2634139 1.166801 0.1999224)
(0.2584358 1.162049 0.1999224)
(0.2600636 1.163662 0.1999224)
(0.2336964 1.124392 0.1999224)
(0.2345694 1.12658 0.1999224)
(0.2273243 1.100191 0.1999224)
(0.2277008 1.102462 0.1999224)
(0.2568406 1.160407 0.1999224)
(0.2537512 1.157039 0.1999224)
(0.2552787 1.158736 0.1999224)
(0.2508017 1.153565 0.1999224)
(0.2522585 1.155315 0.1999224)
(0.2479986 1.149988 0.1999224)
(0.2493815 1.151789 0.1999224)
(0.2466538 1.148164 0.1999224)
(0.244082 1.144444 0.1999224)
(0.245348 1.146315 0.1999224)
(0.2416722 1.140634 0.1999224)
(0.2428564 1.14255 0.1999224)
(0.2405301 1.138697 0.1999224)
(0.2383753 1.134763 0.1999224)
(0.2394309 1.13674 0.1999224)
(0.2363985 1.130751 0.1999224)
(0.2373642 1.132766 0.1999224)
(0.2354643 1.128684 0.1999224)
(0.232171 1.120177 0.1999224)
(0.2329237 1.122326 0.1999224)
(0.2307995 1.115832 0.1999224)
(0.2314632 1.118013 0.1999224)
(0.2296014 1.111428 0.1999224)
(0.2301792 1.113637 0.1999224)
(0.2290655 1.109206 0.1999224)